
OS:Version,
  {e98434b7-bfa3-49f9-8474-dd00da296eac}, !- Handle
  3.5.1;                                  !- Version Identifier

OS:RunPeriod,
  {038163fe-7272-45f1-a24f-3a10119e7ebd}, !- Handle
  Run Period 1,                           !- Name
  1,                                      !- Begin Month
  1,                                      !- Begin Day of Month
  12,                                     !- End Month
  31,                                     !- End Day of Month
  ,                                       !- Use Weather File Holidays and Special Days
  ,                                       !- Use Weather File Daylight Saving Period
  ,                                       !- Apply Weekend Holiday Rule
  ,                                       !- Use Weather File Rain Indicators
  ,                                       !- Use Weather File Snow Indicators
  ;                                       !- Number of Times Runperiod to be Repeated

OS:Timestep,
  {bec4c416-185a-4775-aa76-e7ffefb999d5}, !- Handle
  6;                                      !- Number of Timesteps per Hour

OS:Building,
  {6fc8d175-5567-42ff-80de-5ca1e445a5da}, !- Handle
  Building 1,                             !- Name
  ,                                       !- Building Sector Type
  0,                                      !- North Axis {deg}
  ,                                       !- Nominal Floor to Floor Height {m}
  ,                                       !- Space Type Name
  ,                                       !- Default Construction Set Name
  ;                                       !- Default Schedule Set Name

OS:Site,
  {513b334c-d8fb-44c1-815f-3369513352cc}, !- Handle
  BEIJING,                                !- Name
  39.8,                                   !- Latitude {deg}
  116.47,                                 !- Longitude {deg}
  8,                                      !- Time Zone {hr}
  32,                                     !- Elevation {m}
  City;                                   !- Terrain

OS:SimulationControl,
  {c38e60b9-52e5-43d8-93fa-e551c770699d}, !- Handle
  Yes,                                    !- Do Zone Sizing Calculation
  Yes,                                    !- Do System Sizing Calculation
  Yes,                                    !- Do Plant Sizing Calculation
  No,                                     !- Run Simulation for Sizing Periods
  Yes,                                    !- Run Simulation for Weather File Run Periods
  ,                                       !- Loads Convergence Tolerance Value {W}
  ,                                       !- Temperature Convergence Tolerance Value {deltaC}
  FullInteriorAndExteriorWithReflections; !- Solar Distribution

OS:ShadowCalculation,
  {10a3807b-982c-4a64-b999-fda07676fedf}, !- Handle
  PolygonClipping,                        !- Shading Calculation Method
  ,                                       !- Shading Calculation Update Frequency Method
  30,                                     !- Shading Calculation Update Frequency
  3000,                                   !- Maximum Figures in Shadow Overlap Calculations
  ,                                       !- Polygon Clipping Algorithm
  512,                                    !- Pixel Counting Resolution
  ,                                       !- Sky Diffuse Modeling Algorithm
  No,                                     !- Output External Shading Calculation Results
  No,                                     !- Disable Self-Shading Within Shading Zone Groups
  No;                                     !- Disable Self-Shading From Shading Zone Groups to Other Zones

OS:Sizing:Parameters,
  {48df036d-f9ff-43a3-8e3f-bfca1a4cb153}, !- Handle
  1.25,                                   !- Heating Sizing Factor
  1.15;                                   !- Cooling Sizing Factor

OS:SizingPeriod:DesignDay,
  {bfef868a-a4cb-4368-b1a5-68263ab733b2}, !- Handle
  BEIJING Ann Htg 99.6% Condns DB,        !- Name
  -10.8,                                  !- Maximum Dry-Bulb Temperature {C}
  0,                                      !- Daily Dry-Bulb Temperature Range {deltaC}
  100941,                                 !- Barometric Pressure {Pa}
  2.2,                                    !- Wind Speed {m/s}
  340,                                    !- Wind Direction {deg}
  0,                                      !- Sky Clearness
  No,                                     !- Rain Indicator
  No,                                     !- Snow Indicator
  21,                                     !- Day of Month
  1,                                      !- Month
  WinterDesignDay,                        !- Day Type
  No,                                     !- Daylight Saving Time Indicator
  Wetbulb,                                !- Humidity Condition Type
  ,                                       !- Humidity Condition Day Schedule Name
  -10.8,                                  !- Wetbulb or DewPoint at Maximum Dry-Bulb {C}
  ,                                       !- Humidity Ratio at Maximum Dry-Bulb {kgWater/kgDryAir}
  ,                                       !- Enthalpy at Maximum Dry-Bulb {J/kg}
  DefaultMultipliers,                     !- Dry-Bulb Temperature Range Modifier Type
  ,                                       !- Dry-Bulb Temperature Range Modifier Day Schedule Name
  ASHRAEClearSky;                         !- Solar Model Indicator

OS:SizingPeriod:DesignDay,
  {fd30c5ed-b011-429c-ac72-dbf2c8e9ca2a}, !- Handle
  BEIJING Ann Hum_n 99.6% Condns DP=>MCDB, !- Name
  -4,                                     !- Maximum Dry-Bulb Temperature {C}
  0,                                      !- Daily Dry-Bulb Temperature Range {deltaC}
  100941,                                 !- Barometric Pressure {Pa}
  2.2,                                    !- Wind Speed {m/s}
  340,                                    !- Wind Direction {deg}
  0,                                      !- Sky Clearness
  No,                                     !- Rain Indicator
  No,                                     !- Snow Indicator
  21,                                     !- Day of Month
  1,                                      !- Month
  WinterDesignDay,                        !- Day Type
  No,                                     !- Daylight Saving Time Indicator
  Dewpoint,                               !- Humidity Condition Type
  ,                                       !- Humidity Condition Day Schedule Name
  -30.1,                                  !- Wetbulb or DewPoint at Maximum Dry-Bulb {C}
  ,                                       !- Humidity Ratio at Maximum Dry-Bulb {kgWater/kgDryAir}
  ,                                       !- Enthalpy at Maximum Dry-Bulb {J/kg}
  DefaultMultipliers,                     !- Dry-Bulb Temperature Range Modifier Type
  ,                                       !- Dry-Bulb Temperature Range Modifier Day Schedule Name
  ASHRAEClearSky;                         !- Solar Model Indicator

OS:SizingPeriod:DesignDay,
  {2f366092-8429-4925-aef1-438bddcf9e39}, !- Handle
  BEIJING Ann Htg Wind 99.6% Condns WS=>MCDB, !- Name
  -1.6,                                   !- Maximum Dry-Bulb Temperature {C}
  0,                                      !- Daily Dry-Bulb Temperature Range {deltaC}
  100941,                                 !- Barometric Pressure {Pa}
  12,                                     !- Wind Speed {m/s}
  340,                                    !- Wind Direction {deg}
  0,                                      !- Sky Clearness
  No,                                     !- Rain Indicator
  No,                                     !- Snow Indicator
  21,                                     !- Day of Month
  1,                                      !- Month
  WinterDesignDay,                        !- Day Type
  No,                                     !- Daylight Saving Time Indicator
  Wetbulb,                                !- Humidity Condition Type
  ,                                       !- Humidity Condition Day Schedule Name
  -1.6,                                   !- Wetbulb or DewPoint at Maximum Dry-Bulb {C}
  ,                                       !- Humidity Ratio at Maximum Dry-Bulb {kgWater/kgDryAir}
  ,                                       !- Enthalpy at Maximum Dry-Bulb {J/kg}
  DefaultMultipliers,                     !- Dry-Bulb Temperature Range Modifier Type
  ,                                       !- Dry-Bulb Temperature Range Modifier Day Schedule Name
  ASHRAEClearSky;                         !- Solar Model Indicator

OS:SizingPeriod:DesignDay,
  {2e0c8e11-1c62-40bc-afdf-c007dc28b5b7}, !- Handle
  BEIJING Ann Clg .4% Condns DB=>MWB,     !- Name
  34.9,                                   !- Maximum Dry-Bulb Temperature {C}
  8.9,                                    !- Daily Dry-Bulb Temperature Range {deltaC}
  100941,                                 !- Barometric Pressure {Pa}
  3.4,                                    !- Wind Speed {m/s}
  180,                                    !- Wind Direction {deg}
  0,                                      !- Sky Clearness
  No,                                     !- Rain Indicator
  No,                                     !- Snow Indicator
  21,                                     !- Day of Month
  7,                                      !- Month
  SummerDesignDay,                        !- Day Type
  No,                                     !- Daylight Saving Time Indicator
  Wetbulb,                                !- Humidity Condition Type
  ,                                       !- Humidity Condition Day Schedule Name
  22.2,                                   !- Wetbulb or DewPoint at Maximum Dry-Bulb {C}
  ,                                       !- Humidity Ratio at Maximum Dry-Bulb {kgWater/kgDryAir}
  ,                                       !- Enthalpy at Maximum Dry-Bulb {J/kg}
  DefaultMultipliers,                     !- Dry-Bulb Temperature Range Modifier Type
  ,                                       !- Dry-Bulb Temperature Range Modifier Day Schedule Name
  ASHRAETau,                              !- Solar Model Indicator
  ,                                       !- Beam Solar Day Schedule Name
  ,                                       !- Diffuse Solar Day Schedule Name
  0.747,                                  !- ASHRAE Clear Sky Optical Depth for Beam Irradiance {dimensionless}
  1.448;                                  !- ASHRAE Clear Sky Optical Depth for Diffuse Irradiance {dimensionless}

OS:SizingPeriod:DesignDay,
  {71be3055-aace-4c5e-8c94-0b674bb1add4}, !- Handle
  BEIJING Ann Clg .4% Condns WB=>MDB,     !- Name
  30.5,                                   !- Maximum Dry-Bulb Temperature {C}
  8.9,                                    !- Daily Dry-Bulb Temperature Range {deltaC}
  100941,                                 !- Barometric Pressure {Pa}
  3.4,                                    !- Wind Speed {m/s}
  180,                                    !- Wind Direction {deg}
  0,                                      !- Sky Clearness
  No,                                     !- Rain Indicator
  No,                                     !- Snow Indicator
  21,                                     !- Day of Month
  7,                                      !- Month
  SummerDesignDay,                        !- Day Type
  No,                                     !- Daylight Saving Time Indicator
  Wetbulb,                                !- Humidity Condition Type
  ,                                       !- Humidity Condition Day Schedule Name
  27,                                     !- Wetbulb or DewPoint at Maximum Dry-Bulb {C}
  ,                                       !- Humidity Ratio at Maximum Dry-Bulb {kgWater/kgDryAir}
  ,                                       !- Enthalpy at Maximum Dry-Bulb {J/kg}
  DefaultMultipliers,                     !- Dry-Bulb Temperature Range Modifier Type
  ,                                       !- Dry-Bulb Temperature Range Modifier Day Schedule Name
  ASHRAETau,                              !- Solar Model Indicator
  ,                                       !- Beam Solar Day Schedule Name
  ,                                       !- Diffuse Solar Day Schedule Name
  0.747,                                  !- ASHRAE Clear Sky Optical Depth for Beam Irradiance {dimensionless}
  1.448;                                  !- ASHRAE Clear Sky Optical Depth for Diffuse Irradiance {dimensionless}

OS:SizingPeriod:DesignDay,
  {0ba8c0ff-cd0f-4e31-89fe-18594f8144a7}, !- Handle
  BEIJING Ann Clg .4% Condns DP=>MDB,     !- Name
  28.9,                                   !- Maximum Dry-Bulb Temperature {C}
  8.9,                                    !- Daily Dry-Bulb Temperature Range {deltaC}
  100941,                                 !- Barometric Pressure {Pa}
  3.4,                                    !- Wind Speed {m/s}
  180,                                    !- Wind Direction {deg}
  0,                                      !- Sky Clearness
  No,                                     !- Rain Indicator
  No,                                     !- Snow Indicator
  21,                                     !- Day of Month
  7,                                      !- Month
  SummerDesignDay,                        !- Day Type
  No,                                     !- Daylight Saving Time Indicator
  Dewpoint,                               !- Humidity Condition Type
  ,                                       !- Humidity Condition Day Schedule Name
  26.1,                                   !- Wetbulb or DewPoint at Maximum Dry-Bulb {C}
  ,                                       !- Humidity Ratio at Maximum Dry-Bulb {kgWater/kgDryAir}
  ,                                       !- Enthalpy at Maximum Dry-Bulb {J/kg}
  DefaultMultipliers,                     !- Dry-Bulb Temperature Range Modifier Type
  ,                                       !- Dry-Bulb Temperature Range Modifier Day Schedule Name
  ASHRAETau,                              !- Solar Model Indicator
  ,                                       !- Beam Solar Day Schedule Name
  ,                                       !- Diffuse Solar Day Schedule Name
  0.747,                                  !- ASHRAE Clear Sky Optical Depth for Beam Irradiance {dimensionless}
  1.448;                                  !- ASHRAE Clear Sky Optical Depth for Diffuse Irradiance {dimensionless}

OS:SizingPeriod:DesignDay,
  {bd23285a-fa8e-4469-a157-8c62a5fdd50f}, !- Handle
  BEIJING Ann Clg .4% Condns Enth=>MDB,   !- Name
  30.1,                                   !- Maximum Dry-Bulb Temperature {C}
  8.9,                                    !- Daily Dry-Bulb Temperature Range {deltaC}
  100941,                                 !- Barometric Pressure {Pa}
  3.4,                                    !- Wind Speed {m/s}
  180,                                    !- Wind Direction {deg}
  0,                                      !- Sky Clearness
  No,                                     !- Rain Indicator
  No,                                     !- Snow Indicator
  21,                                     !- Day of Month
  7,                                      !- Month
  SummerDesignDay,                        !- Day Type
  No,                                     !- Daylight Saving Time Indicator
  Enthalpy,                               !- Humidity Condition Type
  ,                                       !- Humidity Condition Day Schedule Name
  ,                                       !- Wetbulb or DewPoint at Maximum Dry-Bulb {C}
  ,                                       !- Humidity Ratio at Maximum Dry-Bulb {kgWater/kgDryAir}
  86200,                                  !- Enthalpy at Maximum Dry-Bulb {J/kg}
  DefaultMultipliers,                     !- Dry-Bulb Temperature Range Modifier Type
  ,                                       !- Dry-Bulb Temperature Range Modifier Day Schedule Name
  ASHRAETau,                              !- Solar Model Indicator
  ,                                       !- Beam Solar Day Schedule Name
  ,                                       !- Diffuse Solar Day Schedule Name
  0.747,                                  !- ASHRAE Clear Sky Optical Depth for Beam Irradiance {dimensionless}
  1.448;                                  !- ASHRAE Clear Sky Optical Depth for Diffuse Irradiance {dimensionless}

OS:BuildingStory,
  {744f776b-acdd-4c78-a99b-4fc692fde7f9}, !- Handle
  Building Story 1,                       !- Name
  5.02,                                   !- Nominal Z Coordinate {m}
  ,                                       !- Nominal Floor to Floor Height {m}
  ,                                       !- Default Construction Set Name
  ,                                       !- Default Schedule Set Name
  {1b4f2250-00b5-451e-b7cf-8049d2024393}; !- Group Rendering Name

OS:Material,
  {b548d5a7-4f9a-4c44-b7da-285dcffec341}, !- Handle
  F16 Acoustic tile,                      !- Name
  MediumSmooth,                           !- Roughness
  0.0191,                                 !- Thickness {m}
  0.06,                                   !- Conductivity {W/m-K}
  368,                                    !- Density {kg/m3}
  590.000000000002,                       !- Specific Heat {J/kg-K}
  0.9,                                    !- Thermal Absorptance
  0.3;                                    !- Solar Absorptance

OS:Material:AirGap,
  {80469bb0-40b8-46ef-ad40-d43dc675972a}, !- Handle
  Material Air Gap 1,                     !- Name
  0.18;                                   !- Thermal Resistance {m2-K/W}

OS:Material,
  {a54b87af-495d-48d1-a92b-1b1267918b1d}, !- Handle
  M11 100mm lightweight concrete,         !- Name
  MediumRough,                            !- Roughness
  0.1016,                                 !- Thickness {m}
  0.53,                                   !- Conductivity {W/m-K}
  1280,                                   !- Density {kg/m3}
  840.000000000002,                       !- Specific Heat {J/kg-K}
  0.9,                                    !- Thermal Absorptance
  0.5;                                    !- Solar Absorptance

OS:Construction,
  {5142bd69-c586-4efe-b3ca-e682b82cf0ae}, !- Handle
  Interior Floor,                         !- Name
  {8f4efbf7-30d3-439d-84e9-b491de8bf6c7}, !- Surface Rendering Name
  {b548d5a7-4f9a-4c44-b7da-285dcffec341}, !- Layer 1
  {80469bb0-40b8-46ef-ad40-d43dc675972a}, !- Layer 2
  {a54b87af-495d-48d1-a92b-1b1267918b1d}; !- Layer 3

OS:WindowMaterial:Glazing,
  {e062c72b-d2bd-4f09-be66-d34778618388}, !- Handle
  Clear 3mm,                              !- Name
  SpectralAverage,                        !- Optical Data Type
  ,                                       !- Window Glass Spectral Data Set Name
  0.00299999999999999,                    !- Thickness {m}
  0.837,                                  !- Solar Transmittance at Normal Incidence
  0.075,                                  !- Front Side Solar Reflectance at Normal Incidence
  0,                                      !- Back Side Solar Reflectance at Normal Incidence
  0.898,                                  !- Visible Transmittance at Normal Incidence
  0.081,                                  !- Front Side Visible Reflectance at Normal Incidence
  0,                                      !- Back Side Visible Reflectance at Normal Incidence
  0,                                      !- Infrared Transmittance at Normal Incidence
  0.84,                                   !- Front Side Infrared Hemispherical Emissivity
  0.84,                                   !- Back Side Infrared Hemispherical Emissivity
  0.9,                                    !- Conductivity {W/m-K}
  1;                                      !- Dirt Correction Factor for Solar and Visible Transmittance

OS:WindowMaterial:Gas,
  {b35202b7-8b3f-44b8-ad95-c0347e646fc4}, !- Handle
  Air 13mm,                               !- Name
  Air,                                    !- Gas Type
  0.0127;                                 !- Thickness {m}

OS:Construction,
  {8bafaea7-d8dd-498a-a803-102f48f0740c}, !- Handle
  Exterior Window,                        !- Name
  {19055917-4bdb-4ffc-ab3d-f697d743515f}, !- Surface Rendering Name
  {e062c72b-d2bd-4f09-be66-d34778618388}, !- Layer 1
  {b35202b7-8b3f-44b8-ad95-c0347e646fc4}, !- Layer 2
  {e062c72b-d2bd-4f09-be66-d34778618388}; !- Layer 3

OS:Material,
  {bfed79e1-69d7-4895-acb6-2c2e04e6a432}, !- Handle
  G01a 19mm gypsum board,                 !- Name
  MediumSmooth,                           !- Roughness
  0.019,                                  !- Thickness {m}
  0.16,                                   !- Conductivity {W/m-K}
  800,                                    !- Density {kg/m3}
  1090,                                   !- Specific Heat {J/kg-K}
  0.9,                                    !- Thermal Absorptance
  0.4;                                    !- Solar Absorptance

OS:Material:AirGap,
  {c5878056-6589-4c04-a7bf-7d6d32e3ceb6}, !- Handle
  Material Air Gap 2,                     !- Name
  0.15;                                   !- Thermal Resistance {m2-K/W}

OS:Construction,
  {ea4b4d99-4be1-49dd-ae2e-244a29a00311}, !- Handle
  Interior Wall,                          !- Name
  {847cc29a-f097-40f1-b074-65302a3a883f}, !- Surface Rendering Name
  {bfed79e1-69d7-4895-acb6-2c2e04e6a432}, !- Layer 1
  {c5878056-6589-4c04-a7bf-7d6d32e3ceb6}, !- Layer 2
  {bfed79e1-69d7-4895-acb6-2c2e04e6a432}; !- Layer 3

OS:Material,
  {44ed3121-bfb2-4ba8-89a3-af6b54531547}, !- Handle
  M01 100mm brick,                        !- Name
  MediumRough,                            !- Roughness
  0.1016,                                 !- Thickness {m}
  0.89,                                   !- Conductivity {W/m-K}
  1920,                                   !- Density {kg/m3}
  790,                                    !- Specific Heat {J/kg-K}
  0.9,                                    !- Thermal Absorptance
  0.7;                                    !- Solar Absorptance

OS:Material,
  {be3627f9-3e22-47e9-a34c-c724a6479ceb}, !- Handle
  M15 200mm heavyweight concrete,         !- Name
  MediumRough,                            !- Roughness
  0.2032,                                 !- Thickness {m}
  1.95,                                   !- Conductivity {W/m-K}
  2240,                                   !- Density {kg/m3}
  900,                                    !- Specific Heat {J/kg-K}
  0.9,                                    !- Thermal Absorptance
  0.7;                                    !- Solar Absorptance

OS:Material,
  {2b2895c7-1a76-41dc-848f-8685c3f29476}, !- Handle
  I02 50mm insulation board,              !- Name
  MediumRough,                            !- Roughness
  0.0508,                                 !- Thickness {m}
  0.03,                                   !- Conductivity {W/m-K}
  43,                                     !- Density {kg/m3}
  1210,                                   !- Specific Heat {J/kg-K}
  0.9,                                    !- Thermal Absorptance
  0.7;                                    !- Solar Absorptance

OS:Construction,
  {dd6fb048-9cc7-498c-b9f5-500e4453b2f7}, !- Handle
  Exterior Wall,                          !- Name
  {42241350-e39d-4f56-a19e-9425793f122a}, !- Surface Rendering Name
  {44ed3121-bfb2-4ba8-89a3-af6b54531547}, !- Layer 1
  {be3627f9-3e22-47e9-a34c-c724a6479ceb}, !- Layer 2
  {2b2895c7-1a76-41dc-848f-8685c3f29476}, !- Layer 3
  {c5878056-6589-4c04-a7bf-7d6d32e3ceb6}, !- Layer 4
  {bfed79e1-69d7-4895-acb6-2c2e04e6a432}; !- Layer 5

OS:Construction,
  {41c76b4c-b758-4a0e-be92-476910ba2013}, !- Handle
  Exterior Roof,                          !- Name
  {b5dc1abc-05c6-4a27-834f-051446200b58}, !- Surface Rendering Name
  {a54b87af-495d-48d1-a92b-1b1267918b1d}, !- Layer 1
  {80469bb0-40b8-46ef-ad40-d43dc675972a}, !- Layer 2
  {b548d5a7-4f9a-4c44-b7da-285dcffec341}; !- Layer 3

OS:DefaultConstructionSet,
  {b4ba9131-7c1e-475b-b86f-edc3771ca989}, !- Handle
  Default Construction Set 1,             !- Name
  {15bdde00-9689-4cbe-ab6a-de70f4da699c}, !- Default Exterior Surface Constructions Name
  {d1d05c02-7bbf-4fc4-8faf-81b43ae2efa2}, !- Default Interior Surface Constructions Name
  {73638ccc-84f4-4f59-a7b0-f9c550fc685a}, !- Default Ground Contact Surface Constructions Name
  {1dcc4fd6-56e7-45a4-ba86-d2aeb2be289c}, !- Default Exterior SubSurface Constructions Name
  {7e8383a1-4669-431b-8813-cd33e3d9ef7a}, !- Default Interior SubSurface Constructions Name
  ,                                       !- Interior Partition Construction Name
  ,                                       !- Space Shading Construction Name
  ,                                       !- Building Shading Construction Name
  ,                                       !- Site Shading Construction Name
  ;                                       !- Adiabatic Surface Construction Name

OS:DefaultSurfaceConstructions,
  {15bdde00-9689-4cbe-ab6a-de70f4da699c}, !- Handle
  Default Surface Constructions 1,        !- Name
  {5142bd69-c586-4efe-b3ca-e682b82cf0ae}, !- Floor Construction Name
  {dd6fb048-9cc7-498c-b9f5-500e4453b2f7}, !- Wall Construction Name
  {41c76b4c-b758-4a0e-be92-476910ba2013}; !- Roof Ceiling Construction Name

OS:DefaultSurfaceConstructions,
  {d1d05c02-7bbf-4fc4-8faf-81b43ae2efa2}, !- Handle
  Default Surface Constructions 2,        !- Name
  ,                                       !- Floor Construction Name
  {ea4b4d99-4be1-49dd-ae2e-244a29a00311}, !- Wall Construction Name
  ;                                       !- Roof Ceiling Construction Name

OS:DefaultSurfaceConstructions,
  {73638ccc-84f4-4f59-a7b0-f9c550fc685a}, !- Handle
  Default Surface Constructions 3,        !- Name
  ,                                       !- Floor Construction Name
  ,                                       !- Wall Construction Name
  ;                                       !- Roof Ceiling Construction Name

OS:DefaultSubSurfaceConstructions,
  {1dcc4fd6-56e7-45a4-ba86-d2aeb2be289c}, !- Handle
  Default Sub Surface Constructions 1,    !- Name
  {8bafaea7-d8dd-498a-a803-102f48f0740c}, !- Fixed Window Construction Name
  ,                                       !- Operable Window Construction Name
  ,                                       !- Door Construction Name
  ,                                       !- Glass Door Construction Name
  ,                                       !- Overhead Door Construction Name
  ,                                       !- Skylight Construction Name
  ,                                       !- Tubular Daylight Dome Construction Name
  ;                                       !- Tubular Daylight Diffuser Construction Name

OS:DefaultSubSurfaceConstructions,
  {7e8383a1-4669-431b-8813-cd33e3d9ef7a}, !- Handle
  Default Sub Surface Constructions 2,    !- Name
  ,                                       !- Fixed Window Construction Name
  ,                                       !- Operable Window Construction Name
  ,                                       !- Door Construction Name
  ,                                       !- Glass Door Construction Name
  ,                                       !- Overhead Door Construction Name
  ,                                       !- Skylight Construction Name
  ,                                       !- Tubular Daylight Dome Construction Name
  ;                                       !- Tubular Daylight Diffuser Construction Name

OS:Space,
  {86d30cd7-f56d-41a6-8678-a7ba60443875}, !- Handle
  zone_0_space,                           !- Name
  {b7eb29b5-0203-470b-94a5-666708e5c86a}, !- Space Type Name
  {b4ba9131-7c1e-475b-b86f-edc3771ca989}, !- Default Construction Set Name
  ,                                       !- Default Schedule Set Name
  ,                                       !- Direction of Relative North {deg}
  ,                                       !- X Origin {m}
  ,                                       !- Y Origin {m}
  ,                                       !- Z Origin {m}
  {744f776b-acdd-4c78-a99b-4fc692fde7f9}, !- Building Story Name
  {dba517f8-bddb-4fcb-afd1-b4ac80d9f5b4}; !- Thermal Zone Name

OS:SpaceType,
  {b7eb29b5-0203-470b-94a5-666708e5c86a}, !- Handle
  Office:OpenOffice:zone_0,               !- Name
  ,                                       !- Default Construction Set Name
  {41d982d6-5a86-4df3-8382-313e6d57a339}, !- Default Schedule Set Name
  {1de58411-47c5-4c73-9769-cf6450e92311}, !- Group Rendering Name
  {f8e585a3-7069-47a4-b1a0-153a64f16cf5}; !- Design Specification Outdoor Air Object Name

OS:DefaultScheduleSet,
  {41d982d6-5a86-4df3-8382-313e6d57a339}, !- Handle
  zone_0_DefaultScheduleSet,              !- Name
  {d6c77fb7-1e48-411f-9db2-f5e305c54e09}, !- Hours of Operation Schedule Name
  ,                                       !- Number of People Schedule Name
  {cfa7610b-6c87-45a7-a6be-0b7d91840855}, !- People Activity Level Schedule Name
  {0b9cf491-0fd8-46a8-80be-09de4e070b5c}, !- Lighting Schedule Name
  {320b1228-9c16-43ba-8e3a-923a7ff4c5eb}, !- Electric Equipment Schedule Name
  ,                                       !- Gas Equipment Schedule Name
  ,                                       !- Hot Water Equipment Schedule Name
  {92be27b5-437c-4b7f-a230-24affa2e1ec9}, !- Infiltration Schedule Name
  ,                                       !- Steam Equipment Schedule Name
  ;                                       !- Other Equipment Schedule Name

OS:ScheduleTypeLimits,
  {192d1e73-4385-4dfe-8dc9-91a922b20a0e}, !- Handle
  Schedule Type Limits 1,                 !- Name
  0,                                      !- Lower Limit Value
  1,                                      !- Upper Limit Value
  CONTINUOUS;                             !- Numeric Type

OS:Schedule:Year,
  {92be27b5-437c-4b7f-a230-24affa2e1ec9}, !- Handle